* PSpice Model Editor - Version 9.2

*$
.model Dbreak D Is=1e-14 Cjo=.1pF Rs=.1 
+BV=3.3V
*$
