Version 4
SHEET 1 2068 852
WIRE 960 -64 736 -64
WIRE 1088 -64 960 -64
WIRE 960 0 960 -64
WIRE 1088 0 1088 -64
WIRE 1280 32 1168 32
WIRE 128 80 48 80
WIRE 240 80 208 80
WIRE 416 80 352 80
WIRE 512 80 416 80
WIRE 608 80 576 80
WIRE 672 80 608 80
WIRE 736 80 736 -64
WIRE 736 80 672 80
WIRE 1280 96 1280 32
WIRE 1280 96 1168 96
WIRE 1328 96 1280 96
WIRE 1456 96 1408 96
WIRE 1712 96 1456 96
WIRE 48 128 48 80
WIRE 240 128 240 80
WIRE 352 128 352 80
WIRE 672 128 672 80
WIRE 880 160 832 160
WIRE 832 176 832 160
WIRE 1456 192 1456 96
WIRE 1456 192 1168 192
WIRE 1456 208 1456 192
WIRE 48 256 48 208
WIRE 144 256 48 256
WIRE 240 256 240 208
WIRE 240 256 144 256
WIRE 352 256 352 208
WIRE 480 256 352 256
WIRE 512 256 480 256
WIRE 608 256 608 80
WIRE 608 256 576 256
WIRE 416 288 416 80
WIRE 480 288 480 256
WIRE 832 288 832 256
WIRE 880 288 832 288
WIRE 1264 288 1168 288
WIRE 1456 288 1264 288
WIRE 1264 320 1264 288
WIRE 480 352 416 352
WIRE 672 352 672 192
WIRE 672 352 480 352
WIRE 1264 416 1264 384
WIRE 1264 416 1168 416
WIRE 672 576 672 352
WIRE 1024 592 1024 448
FLAG 144 256 0
FLAG 672 576 0
FLAG 1024 592 0
FLAG 1456 368 0
SYMBOL voltage 48 112 R0
WINDOW 123 0 0 Left 2
WINDOW 39 0 0 Left 2
SYMATTR InstName V1
SYMATTR Value SINE(0 311 50 0)
SYMBOL res 224 64 R90
WINDOW 0 0 56 VBottom 2
WINDOW 3 32 56 VTop 2
SYMATTR InstName R1
SYMATTR Value 10
SYMBOL ind2 224 224 M180
WINDOW 0 36 80 Left 2
WINDOW 3 36 40 Left 2
SYMATTR InstName L1
SYMATTR Value 100
SYMBOL ind2 368 224 R180
WINDOW 0 36 80 Left 2
WINDOW 3 36 40 Left 2
SYMATTR InstName L2
SYMATTR Value 1
SYMBOL cap 656 128 R0
SYMATTR InstName C1
SYMATTR Value 5000µ
SYMBOL diode 512 96 R270
WINDOW 0 32 32 VTop 2
WINDOW 3 0 32 VBottom 2
SYMATTR InstName D1
SYMBOL diode 512 272 R270
WINDOW 0 32 32 VTop 2
WINDOW 3 0 32 VBottom 2
SYMATTR InstName D2
SYMBOL diode 496 352 R180
WINDOW 0 24 64 Left 2
WINDOW 3 24 0 Left 2
SYMATTR InstName D3
SYMBOL diode 432 352 R180
WINDOW 0 24 64 Left 2
WINDOW 3 24 0 Left 2
SYMATTR InstName D4
SYMBOL LM723 1024 128 R0
SYMATTR InstName U1
SYMBOL cap 1248 320 R0
SYMATTR InstName C2
SYMATTR Value 100p
SYMBOL res 1440 272 R0
SYMATTR InstName R3
SYMATTR Value 330
SYMBOL res 1440 192 R0
SYMATTR InstName R4
SYMATTR Value 6.8k
SYMBOL res 1424 80 R90
WINDOW 0 0 56 VBottom 2
WINDOW 3 32 56 VTop 2
SYMATTR InstName R5
SYMATTR Value 220
SYMBOL res 816 160 R0
SYMATTR InstName R2
SYMATTR Value 2.2k
TEXT 240 32 Left 2 !K L1 L2 1
TEXT 16 280 Left 2 !.tran 0 10
TEXT 352 -56 Left 2 !.inc Models.lib
