Version 4
SHEET 1 1252 1280
WIRE -544 0 -624 0
WIRE -480 0 -496 0
WIRE -400 0 -480 0
WIRE -304 0 -320 0
WIRE -272 0 -304 0
WIRE 352 0 -192 0
WIRE -624 32 -624 0
WIRE 1184 32 1184 16
WIRE 192 48 176 48
WIRE 304 48 272 48
WIRE 992 80 992 32
WIRE 1184 80 1184 32
WIRE -304 96 -304 0
WIRE 176 112 176 48
WIRE 208 112 176 112
WIRE 304 112 304 48
WIRE 304 112 272 112
WIRE -32 144 -192 144
WIRE -624 160 -624 112
WIRE 992 192 992 160
WIRE 1184 192 1184 160
WIRE 1184 192 992 192
WIRE -96 208 -96 192
WIRE 992 208 992 192
WIRE -192 224 -192 144
WIRE -128 224 -192 224
WIRE -96 224 -96 208
WIRE 224 224 224 208
WIRE -32 240 -32 144
WIRE -32 240 -64 240
WIRE 32 240 -32 240
WIRE 176 240 176 112
WIRE 176 240 112 240
WIRE 192 240 176 240
WIRE -304 256 -304 160
WIRE -128 256 -304 256
WIRE 304 256 304 112
WIRE 304 256 256 256
WIRE 352 256 352 0
WIRE 352 256 304 256
WIRE 368 256 352 256
WIRE 512 256 432 256
WIRE 560 256 512 256
WIRE 800 256 640 256
WIRE 192 272 160 272
WIRE -304 304 -304 256
WIRE 800 304 800 256
WIRE -96 336 -96 272
WIRE -64 336 -96 336
WIRE 224 336 224 288
WIRE 256 336 224 336
WIRE -624 416 -624 240
WIRE -304 416 -304 384
WIRE -304 416 -624 416
WIRE 160 416 160 272
WIRE 160 416 -304 416
WIRE 224 416 160 416
WIRE 512 416 512 336
WIRE 512 416 224 416
WIRE 800 416 800 384
WIRE 800 416 512 416
WIRE 224 464 224 416
WIRE 16 512 -352 512
WIRE 608 512 16 512
WIRE 832 512 608 512
WIRE -352 528 -352 512
WIRE 16 624 16 592
WIRE 16 624 -96 624
WIRE -352 640 -352 608
WIRE -352 640 -448 640
WIRE 16 640 16 624
WIRE -352 656 -352 640
WIRE 608 704 608 512
WIRE -96 720 -96 624
WIRE -448 736 -448 640
WIRE -352 768 -352 736
WIRE -192 768 -352 768
WIRE 16 784 16 720
WIRE 160 784 16 784
WIRE 288 784 240 784
WIRE 336 784 288 784
WIRE 496 784 416 784
WIRE 608 784 560 784
WIRE -352 800 -352 768
WIRE 608 816 608 784
WIRE -192 832 -192 768
WIRE -96 896 -96 784
WIRE 16 896 16 864
WIRE 16 896 -96 896
WIRE 608 896 608 880
WIRE -448 912 -448 800
WIRE -352 912 -352 880
WIRE -352 912 -448 912
WIRE 288 912 288 784
WIRE 16 928 16 896
WIRE -352 944 -352 912
WIRE -352 1072 -352 1024
WIRE -352 1072 -512 1072
WIRE 16 1072 16 1008
WIRE 16 1072 -352 1072
WIRE 608 1072 608 896
WIRE 608 1072 16 1072
WIRE -512 1088 -512 1072
WIRE 768 1088 768 1072
WIRE 736 1104 624 1104
WIRE 832 1120 832 512
WIRE 832 1120 800 1120
WIRE 912 1120 832 1120
WIRE -192 1136 -192 912
WIRE 288 1136 288 976
WIRE 288 1136 -192 1136
WIRE 624 1136 624 1104
WIRE 624 1136 288 1136
WIRE 736 1136 656 1136
WIRE -512 1184 -512 1168
WIRE 768 1184 768 1152
WIRE 768 1184 704 1184
WIRE 912 1216 912 1200
WIRE 912 1216 848 1216
WIRE 912 1232 912 1216
WIRE 656 1264 656 1136
WIRE 656 1264 -512 1264
WIRE 848 1264 848 1216
WIRE 848 1264 656 1264
FLAG 224 464 0
FLAG -96 192 alim
FLAG 224 208 alim
FLAG 992 32 alim
FLAG 992 208 0
FLAG -64 336 alim-
FLAG 256 336 alim-
FLAG 1184 32 alim-
FLAG 768 1072 alim
FLAG 704 1184 alim-
FLAG 912 1232 0
SYMBOL res 288 32 R90
WINDOW 0 0 56 VBottom 2
WINDOW 3 32 56 VTop 2
SYMATTR InstName R1
SYMATTR Value 2.2k
SYMBOL cap 272 96 R90
WINDOW 0 0 32 VBottom 2
WINDOW 3 32 32 VTop 2
SYMATTR InstName C2
SYMATTR Value 100p
SYMBOL cap 432 240 R90
WINDOW 0 0 32 VBottom 2
WINDOW 3 32 32 VTop 2
SYMATTR InstName C1
SYMATTR Value 220µ
SYMBOL res 496 240 R0
SYMATTR InstName R2
SYMATTR Value 22k
SYMBOL res 656 240 R90
WINDOW 0 0 56 VBottom 2
WINDOW 3 32 56 VTop 2
SYMATTR InstName R3
SYMATTR Value 100
SYMBOL res 128 224 R90
WINDOW 0 0 56 VBottom 2
WINDOW 3 32 56 VTop 2
SYMATTR InstName R4
SYMATTR Value 680
SYMBOL res -320 288 R0
SYMATTR InstName R5
SYMATTR Value 22k
SYMBOL cap -320 96 R0
SYMATTR InstName C3
SYMATTR Value 22µ
SYMBOL res -304 -16 R90
WINDOW 0 0 56 VBottom 2
WINDOW 3 32 56 VTop 2
SYMATTR InstName R6
SYMATTR Value 100
SYMBOL res -176 -16 R90
WINDOW 0 0 56 VBottom 2
WINDOW 3 32 56 VTop 2
SYMATTR InstName R7
SYMATTR Value 10K
SYMBOL res 816 400 R180
WINDOW 0 36 76 Left 2
WINDOW 3 36 40 Left 2
SYMATTR InstName R8
SYMATTR Value 50k
SYMBOL res -608 128 R180
WINDOW 0 36 76 Left 2
WINDOW 3 36 40 Left 2
SYMATTR InstName R9
SYMATTR Value 50
SYMBOL voltage -624 144 R0
WINDOW 123 0 0 Left 2
WINDOW 39 0 0 Left 2
SYMATTR InstName V1
SYMATTR Value SINE(0 150m 100K)
SYMBOL cap -480 -16 R90
WINDOW 0 0 32 VBottom 2
WINDOW 3 32 32 VTop 2
SYMATTR InstName C4
SYMATTR Value 220µ
SYMBOL Opamps\\LTC6247 -96 240 R0
SYMATTR InstName U1
SYMBOL Opamps\\LTC6247 224 256 R0
SYMATTR InstName U2
SYMBOL voltage 992 64 R0
WINDOW 123 0 0 Left 2
WINDOW 39 0 0 Left 2
SYMATTR InstName V2
SYMATTR Value 20
SYMBOL voltage 1184 64 R0
WINDOW 123 0 0 Left 2
WINDOW 39 0 0 Left 2
SYMATTR InstName V3
SYMATTR Value -20
SYMBOL res -368 640 R0
SYMATTR InstName R10
SYMATTR Value 10k
SYMBOL res -368 784 R0
SYMATTR InstName R11
SYMATTR Value 10
SYMBOL res -368 928 R0
SYMATTR InstName R12
SYMATTR Value 6.8k
SYMBOL res -368 512 R0
SYMATTR InstName R13
SYMATTR Value 6.8k
SYMBOL cap -464 736 R0
SYMATTR InstName C5
SYMATTR Value 47n
SYMBOL res 0 496 R0
SYMATTR InstName R14
SYMATTR Value 2.2k
SYMBOL res 0 624 R0
SYMATTR InstName R15
SYMATTR Value 5k
SYMBOL res 0 768 R0
SYMATTR InstName R16
SYMATTR Value 5k
SYMBOL res 0 912 R0
SYMATTR InstName R17
SYMATTR Value 2.2k
SYMBOL cap -112 720 R0
SYMATTR InstName C6
SYMATTR Value 10n
SYMBOL res 592 688 R0
SYMATTR InstName R18
SYMATTR Value 5k
SYMBOL res 256 768 R90
WINDOW 0 0 56 VBottom 2
WINDOW 3 32 56 VTop 2
SYMATTR InstName R19
SYMATTR Value 15k
SYMBOL res 432 768 R90
WINDOW 0 0 56 VBottom 2
WINDOW 3 32 56 VTop 2
SYMATTR InstName R20
SYMATTR Value 10k
SYMBOL cap 560 768 R90
WINDOW 0 0 32 VBottom 2
WINDOW 3 32 32 VTop 2
SYMATTR InstName C7
SYMATTR Value 2.2n
SYMBOL cap 272 912 R0
SYMATTR InstName C8
SYMATTR Value 10n
SYMBOL res 592 800 R0
SYMATTR InstName R21
SYMATTR Value 5k
SYMBOL res -208 816 R0
SYMATTR InstName R22
SYMATTR Value 68k
SYMBOL Opamps\\LTC6248 768 1120 R0
SYMATTR InstName U3
SYMBOL res 896 1104 R0
SYMATTR InstName R23
SYMATTR Value 50k
SYMBOL voltage -512 1168 R0
WINDOW 123 0 0 Left 2
WINDOW 39 0 0 Left 2
SYMATTR InstName V4
SYMATTR Value SINE(0 150m 10)
SYMBOL res -528 1072 R0
SYMATTR InstName R24
SYMATTR Value 50
TEXT -680 488 Left 2 !.tran 0 1 0 .1
